#p rhf nosymm output=matrix int=noraf scf=conven

h2-sto3g

0 1
H              
H 1 1.2
H 2 1.2 1 180.
H 3 1.2 2 180. 1 0.0
H 4 1.2 3 180. 1 0.0
H 5 1.2 4 180. 1 0.0
H 6 1.2 5 180. 1 0.0
H 7 1.2 6 180. 1 0.0
H 8 1.2 7 180. 1 0.0
H 9 1.2 8 180. 1 0.0
H 10 1.2 9 180. 1 0.0
H 11 1.2 10 180. 1 0.0
H 12 1.2 11 180. 1 0.0
H 13 1.2 12 180. 1 0.0
H 14 1.2 13 180. 1 0.0
H 15 1.2 14 180. 1 0.0

h2-16.mat

