#p rhf nosymm output=matrix int=noraf scf=conven

h2-sto3g

0 1
H              
H 1 1.2
H 2 1.2 1 180.
H 3 1.2 2 180. 1 0.0
H 4 1.2 3 180. 1 0.0
H 5 1.2 4 180. 1 0.0
H 6 1.2 5 180. 1 0.0
H 7 1.2 6 180. 1 0.0
H 8 1.2 7 180. 1 0.0
H 9 1.2 8 180. 1 0.0
H 10 1.2 9 180. 1 0.0
H 11 1.2 10 180. 1 0.0
H 12 1.2 11 180. 1 0.0
H 13 1.2 12 180. 1 0.0
H 14 1.2 13 180. 1 0.0
H 15 1.2 14 180. 1 0.0
H 16 1.2 15 180. 1 0.0
H 17 1.2 16 180. 1 0.0
H 18 1.2 17 180. 1 0.0
H 19 1.2 18 180. 1 0.0
H 20 1.2 19 180. 1 0.0
H 21 1.2 20 180. 1 0.0
H 22 1.2 21 180. 1 0.0
H 23 1.2 22 180. 1 0.0
H 24 1.2 23 180. 1 0.0
H 25 1.2 24 180. 1 0.0
H 26 1.2 25 180. 1 0.0
H 27 1.2 26 180. 1 0.0
H 28 1.2 27 180. 1 0.0
H 29 1.2 28 180. 1 0.0
H 30 1.2 29 180. 1 0.0
H 31 1.2 30 180. 1 0.0
H 32 1.2 31 180. 1 0.0
H 33 1.2 32 180. 1 0.0
H 34 1.2 33 180. 1 0.0
H 35 1.2 34 180. 1 0.0
H 36 1.2 35 180. 1 0.0
H 37 1.2 36 180. 1 0.0
H 38 1.2 37 180. 1 0.0
H 39 1.2 38 180. 1 0.0
H 40 1.2 39 180. 1 0.0
H 41 1.2 40 180. 1 0.0
H 42 1.2 41 180. 1 0.0
H 43 1.2 42 180. 1 0.0
H 44 1.2 43 180. 1 0.0
H 45 1.2 44 180. 1 0.0
H 46 1.2 45 180. 1 0.0
H 47 1.2 46 180. 1 0.0
H 48 1.2 47 180. 1 0.0
H 49 1.2 48 180. 1 0.0
H 50 1.2 49 180. 1 0.0
H 51 1.2 50 180. 1 0.0
H 52 1.2 51 180. 1 0.0
H 53 1.2 52 180. 1 0.0
H 54 1.2 53 180. 1 0.0
H 55 1.2 54 180. 1 0.0
H 56 1.2 55 180. 1 0.0
H 57 1.2 56 180. 1 0.0
H 58 1.2 57 180. 1 0.0
H 59 1.2 58 180. 1 0.0
H 60 1.2 59 180. 1 0.0
H 61 1.2 60 180. 1 0.0
H 62 1.2 61 180. 1 0.0
H 63 1.2 62 180. 1 0.0

h2-64.mat

